<?xml version="1.0" encoding="UTF-8"?>

<configuration>

    <input>
        <net-file value="shihuxilu.net.xml"/>
        <route-files value="shihuxilu_flow.xml"/>
		<additional-files value="detector.add.xml"/>
    </input>

    <step-length value="0.1"/>
	
	<processing>
		<lateral-resolution value="0.3"/>
	</processing>

    <report>
        <verbose value="true"/>
        <no-step-log value="true"/>
    </report>

</configuration>

