<?xml version="1.0" encoding="UTF-8"?>

<!-- generated on 10/23/20 11:23:45 by Eclipse SUMO netedit Version 1.7.0
<configuration xmlns:xsi="http://www.w3.org/2001/XMLSchema-instance" xsi:noNamespaceSchemaLocation="http://sumo.dlr.de/xsd/netconvertConfiguration.xsd">

    <input>
        <sumo-net-file value="C:\functionJointDebugging\ДњТы\sumoFso\scenario\sumodata\shihuxilu_add.net.xml"/>
    </input>

    <output>
        <output-file value="C:\functionJointDebugging\ДњТы\sumoFso\scenario\sumodata\shihuxilu_add.net.xml"/>
    </output>

    <processing>
        <geometry.min-radius.fix.railways value="false"/>
        <geometry.max-grade.fix value="false"/>
        <offset.disable-normalization value="true"/>
        <lefthand value="false"/>
    </processing>

    <junctions>
        <no-turnarounds value="true"/>
        <junctions.corner-detail value="5"/>
        <junctions.limit-turn-speed value="5.5"/>
        <rectangular-lane-cut value="false"/>
    </junctions>

    <pedestrian>
        <walkingareas value="false"/>
    </pedestrian>

    <netedit>
        <additional-files value="C:\sumoProject\gitPull1\sumoFso\scenario\sumodata\shihuxilu_change_dec.add.xml"/>
    </netedit>

    <report>
        <aggregate-warnings value="5"/>
    </report>

</configuration>
-->

<additional xmlns:xsi="http://www.w3.org/2001/XMLSchema-instance" xsi:noNamespaceSchemaLocation="http://sumo.dlr.de/xsd/additional_file.xsd">
    <e1Detector id="e1Detector_lane1_0_0" lane="lane1_0" pos="226.43" freq="900.00" file="e1Detector_lane1_0_0.xml"/>
</additional>
