<?xml version="1.0" encoding="UTF-8"?>

<!-- generated on 10/21/20 17:56:14 by Eclipse SUMO netedit Version 1.7.0
<configuration xmlns:xsi="http://www.w3.org/2001/XMLSchema-instance" xsi:noNamespaceSchemaLocation="http://sumo.dlr.de/xsd/netconvertConfiguration.xsd">

    <input>
        <sumo-net-file value="C:\sumoProject\gitPull1\sumoFrameData\sumo\scenario\shihuxilu_add.net.xml"/>
    </input>

    <output>
        <output-file value="C:\sumoProject\gitPull1\sumoFrameData\sumo\scenario\shihuxilu_add.net.xml"/>
    </output>

    <processing>
        <geometry.min-radius.fix.railways value="false"/>
        <geometry.max-grade.fix value="false"/>
        <offset.disable-normalization value="true"/>
        <lefthand value="false"/>
    </processing>

    <junctions>
        <no-turnarounds value="true"/>
        <junctions.corner-detail value="5"/>
        <junctions.limit-turn-speed value="5.5"/>
        <rectangular-lane-cut value="false"/>
    </junctions>

    <pedestrian>
        <walkingareas value="false"/>
    </pedestrian>

    <netedit>
        <additional-files value="C:\sumoProject\gitPull1\sumoFso\scenario\sumodata\test111111.add.xml"/>
    </netedit>

    <report>
        <aggregate-warnings value="5"/>
    </report>

</configuration>
-->

<additional xmlns:xsi="http://www.w3.org/2001/XMLSchema-instance" xsi:noNamespaceSchemaLocation="http://sumo.dlr.de/xsd/additional_file.xsd">
    <e1Detector id="e1Detector_-449708064#2.1022_0_4" lane="-449708064#2.1022_0" pos="264.60" freq="900.00" file="e1Detector_-449708064#2.1022_0_4.xml" friendlyPos="1"/>
    <e1Detector id="e1Detector_-449708064#2.1022_1_5" lane="-449708064#2.1022_1" pos="264.97" freq="900.00" file="e1Detector_-449708064#2.1022_1_5.xml" friendlyPos="1"/>
    <e1Detector id="e1Detector_449708066#0.454_0_23" lane="449708066#0.454_0" pos="81.53" freq="900.00" file="e1Detector_449708066#0.454_0_23.xml"/>
    <e1Detector id="e1Detector_449708066#0.454_1_24" lane="449708066#0.454_1" pos="81.89" freq="900.00" file="e1Detector_449708066#0.454_1_24.xml"/>
    <e1Detector id="e1Detector_449708066#0.454_2_25" lane="449708066#0.454_2" pos="82.08" freq="900.00" file="e1Detector_449708066#0.454_2_25.xml"/>
    <e1Detector id="e1Detector_449708066#0.454_3_26" lane="449708066#0.454_3" pos="81.59" freq="900.00" file="e1Detector_449708066#0.454_3_26.xml"/>
    <e1Detector id="e1Detector_449708369#0_0_6" lane="449708369#0_0" pos="576.07" freq="900.00" file="e1Detector_449708369#0_0_6.xml"/>
    <e1Detector id="e1Detector_449708369#0_1_7" lane="449708369#0_1" pos="575.83" freq="900.00" file="e1Detector_449708369#0_1_7.xml"/>
    <e1Detector id="e1Detector_449708369#0_2_8" lane="449708369#0_2" pos="575.69" freq="900.00" file="e1Detector_449708369#0_2_8.xml"/>
    <e1Detector id="e1Detector_449708369#0_3_9" lane="449708369#0_3" pos="575.45" freq="900.00" file="e1Detector_449708369#0_3_9.xml"/>
    <e1Detector id="e1Detector_449708369#1.391_0_19" lane="449708369#1.391_0" pos="97.79" freq="900.00" file="e1Detector_449708369#1.391_0_19.xml"/>
    <e1Detector id="e1Detector_449708369#1.391_1_20" lane="449708369#1.391_1" pos="98.05" freq="900.00" file="e1Detector_449708369#1.391_1_20.xml"/>
    <e1Detector id="e1Detector_449708369#1.391_2_21" lane="449708369#1.391_2" pos="97.81" freq="900.00" file="e1Detector_449708369#1.391_2_21.xml"/>
    <e1Detector id="e1Detector_449708369#1.391_3_22" lane="449708369#1.391_3" pos="97.91" freq="900.00" file="e1Detector_449708369#1.391_3_22.xml"/>
    <e1Detector id="e1Detector_449708370#0.375_0_0" lane="449708370#0.375_0" pos="127.30" freq="900.00" file="e1Detector_449708370#0.375_0_0.xml" friendlyPos="1"/>
    <e1Detector id="e1Detector_449708370#0.375_1_1" lane="449708370#0.375_1" pos="127.10" freq="900.00" file="e1Detector_449708370#0.375_1_1.xml" friendlyPos="1"/>
    <e1Detector id="e1Detector_449708370#0.375_2_2" lane="449708370#0.375_2" pos="126.42" freq="900.00" file="e1Detector_449708370#0.375_2_2.xml" friendlyPos="1"/>
    <e1Detector id="e1Detector_449708370#0.375_3_3" lane="449708370#0.375_3" pos="126.01" freq="900.00" file="e1Detector_449708370#0.375_3_3.xml" friendlyPos="1"/>
    <e1Detector id="e1Detector_832162248#0.882_0_12" lane="832162248#0.882_0" pos="26.42" freq="900.00" file="e1Detector_832162248#0.882_0_12.xml"/>
    <e1Detector id="e1Detector_832162248#0.882_1_13" lane="832162248#0.882_1" pos="27.55" freq="900.00" file="e1Detector_832162248#0.882_1_13.xml"/>
    <e1Detector id="e1Detector_832162248#0.882_2_14" lane="832162248#0.882_2" pos="27.99" freq="900.00" file="e1Detector_832162248#0.882_2_14.xml"/>
    <e1Detector id="e1Detector_834077718#0.161_0_15" lane="834077718#0.161_0" pos="67.77" freq="900.00" file="e1Detector_834077718#0.161_0_15.xml"/>
    <e1Detector id="e1Detector_834077718#0.161_1_16" lane="834077718#0.161_1" pos="67.59" freq="900.00" file="e1Detector_834077718#0.161_1_16.xml"/>
    <e1Detector id="e1Detector_834077718#0.161_2_17" lane="834077718#0.161_2" pos="66.72" freq="900.00" file="e1Detector_834077718#0.161_2_17.xml"/>
    <e1Detector id="e1Detector_834077718#0.161_3_18" lane="834077718#0.161_3" pos="67.23" freq="900.00" file="e1Detector_834077718#0.161_3_18.xml"/>
    <e1Detector id="e1Detector_lane1_0_10" lane="lane1_0" pos="237.49" freq="900.00" file="e1Detector_lane1_0_10.xml" friendlyPos="1"/>
    <e1Detector id="e1Detector_lane1_1_11" lane="lane1_1" pos="237.36" freq="900.00" file="e1Detector_lane1_1_11.xml" friendlyPos="1"/>
</additional>
