<?xml version="1.0" encoding="UTF-8"?>

<!-- generated on 06/11/20 17:04:28 by Eclipse SUMO netedit Version 1.2.0
<configuration xmlns:xsi="http://www.w3.org/2001/XMLSchema-instance" xsi:noNamespaceSchemaLocation="http://sumo.dlr.de/xsd/netconvertConfiguration.xsd">

    <input>
        <sumo-net-file value="F:\Dev_KEDA\KISS\kiss_src_bms\virtualTrafficScene\simulation\sumo\scenario\pudong100.net.xml"/>
    </input>

    <output>
        <output-file value="F:\Dev_KEDA\KISS\kiss_src_bms\virtualTrafficScene\simulation\sumo\scenario\pudong100.net.xml"/>
    </output>

    <processing>
        <geometry.max-grade.fix value="false"/>
        <offset.disable-normalization value="true"/>
        <lefthand value="false"/>
    </processing>

    <junctions>
        <no-turnarounds value="true"/>
        <junctions.corner-detail value="5"/>
        <junctions.limit-turn-speed value="5.5"/>
        <rectangular-lane-cut value="false"/>
    </junctions>

    <pedestrian>
        <walkingareas value="false"/>
    </pedestrian>

    <netedit>
        <additional-files value="F:\Dev_KEDA\KISS\kiss_src_bms\virtualTrafficScene\simulation\sumo\scenario\test.det.xml"/>
    </netedit>

</configuration>
-->

<additional xmlns:xsi="http://www.w3.org/2001/XMLSchema-instance" xsi:noNamespaceSchemaLocation="http://sumo.dlr.de/xsd/additional_file.xsd">
    <e1Detector id="e1Detector_-10210557_0_437" lane="-10210557_0" pos="293.68" freq="86400" file="./detoutput/e1Detector.xml"/>
    <e1Detector id="e1Detector_-10341672#2_0_540" lane="-10341672#2_0" pos="192.90" freq="86400" file="./detoutput/e1Detector.xml"/>
    <e1Detector id="e1Detector_-10639453#0_0_463" lane="-10639453#0_0" pos="241.21" freq="86400" file="./detoutput/e1Detector.xml"/>
    <e1Detector id="e1Detector_-10639453#0_1_464" lane="-10639453#0_1" pos="241.49" freq="86400" file="./detoutput/e1Detector.xml"/>
    <e1Detector id="e1Detector_-10639453#10_0_205" lane="-10639453#10_0" pos="73.32" freq="86400" file="./detoutput/e1Detector.xml"/>
    <e1Detector id="e1Detector_-10639453#10_1_206" lane="-10639453#10_1" pos="73.40" freq="86400" file="./detoutput/e1Detector.xml"/>
    <e1Detector id="e1Detector_-10639453#10_2_207" lane="-10639453#10_2" pos="73.40" freq="86400" file="./detoutput/e1Detector.xml"/>
    <e1Detector id="e1Detector_-10639453#13_0_123" lane="-10639453#13_0" pos="200.47" freq="86400" file="./detoutput/e1Detector.xml"/>
    <e1Detector id="e1Detector_-10639453#5_0_316" lane="-10639453#5_0" pos="279.09" freq="86400" file="./detoutput/e1Detector.xml"/>
    <e1Detector id="e1Detector_-10639453#5_1_317" lane="-10639453#5_1" pos="279.02" freq="86400" file="./detoutput/e1Detector.xml"/>
    <e1Detector id="e1Detector_-10639460#10_0_236" lane="-10639460#10_0" pos="265.70" freq="86400" file="./detoutput/e1Detector.xml"/>
    <e1Detector id="e1Detector_-10639460#10_1_237" lane="-10639460#10_1" pos="265.83" freq="86400" file="./detoutput/e1Detector.xml"/>
    <e1Detector id="e1Detector_-10639460#11_0_159" lane="-10639460#11_0" pos="257.01" freq="86400" file="./detoutput/e1Detector.xml"/>
    <e1Detector id="e1Detector_-10639460#11_1_160" lane="-10639460#11_1" pos="257.04" freq="86400" file="./detoutput/e1Detector.xml"/>
    <e1Detector id="e1Detector_-10639460#12_0_136" lane="-10639460#12_0" pos="144.01" freq="86400" file="./detoutput/e1Detector.xml"/>
    <e1Detector id="e1Detector_-10639460#12_1_137" lane="-10639460#12_1" pos="143.53" freq="86400" file="./detoutput/e1Detector.xml"/>
    <e1Detector id="e1Detector_-10639460#16_0_90" lane="-10639460#16_0" pos="69.04" freq="86400" file="./detoutput/e1Detector.xml"/>
    <e1Detector id="e1Detector_-10639460#18_0_47" lane="-10639460#18_0" pos="182.78" freq="86400" file="./detoutput/e1Detector.xml"/>
    <e1Detector id="e1Detector_-10639460#18_1_48" lane="-10639460#18_1" pos="182.64" freq="86400" file="./detoutput/e1Detector.xml"/>
    <e1Detector id="e1Detector_-10639460#6_0_491" lane="-10639460#6_0" pos="192.09" freq="86400" file="./detoutput/e1Detector.xml"/>
    <e1Detector id="e1Detector_-10639460#9_0_360" lane="-10639460#9_0" pos="360.14" freq="86400" file="./detoutput/e1Detector.xml"/>
    <e1Detector id="e1Detector_-10639460#9_1_361" lane="-10639460#9_1" pos="360.00" freq="86400" file="./detoutput/e1Detector.xml"/>
    <e1Detector id="e1Detector_-10639490#0_0_629" lane="-10639490#0_0" pos="311.64" freq="86400" file="./detoutput/e1Detector.xml"/>
    <e1Detector id="e1Detector_-10639490#1_0_526" lane="-10639490#1_0" pos="28.87" freq="86400" file="./detoutput/e1Detector.xml"/>
    <e1Detector id="e1Detector_-10692889#0_0_635" lane="-10692889#0_0" pos="305.86" freq="86400" file="./detoutput/e1Detector.xml"/>
    <e1Detector id="e1Detector_-10692889#1_0_530" lane="-10692889#1_0" pos="67.58" freq="86400" file="./detoutput/e1Detector.xml"/>
    <e1Detector id="e1Detector_-10692902#5_0_442" lane="-10692902#5_0" pos="285.29" freq="86400" file="./detoutput/e1Detector.xml"/>
    <e1Detector id="e1Detector_-10692902#6_0_539" lane="-10692902#6_0" pos="151.61" freq="86400" file="./detoutput/e1Detector.xml"/>
    <e1Detector id="e1Detector_-12081602#3_0_322" lane="-12081602#3_0" pos="1.07" freq="86400" file="./detoutput/e1Detector.xml"/>
    <e1Detector id="e1Detector_-12081602#3_1_323" lane="-12081602#3_1" pos="1.39" freq="86400" file="./detoutput/e1Detector.xml"/>
    <e1Detector id="e1Detector_-12081602#7_0_468" lane="-12081602#7_0" pos="586.32" freq="86400" file="./detoutput/e1Detector.xml"/>
    <e1Detector id="e1Detector_-12081602#7_1_469" lane="-12081602#7_1" pos="586.66" freq="86400" file="./detoutput/e1Detector.xml"/>
    <e1Detector id="e1Detector_-12618613#9_0_542" lane="-12618613#9_0" pos="148.42" freq="86400" file="./detoutput/e1Detector.xml"/>
    <e1Detector id="e1Detector_-13025672#0_0_605" lane="-13025672#0_0" pos="0.16" freq="86400" file="./detoutput/e1Detector.xml"/>
    <e1Detector id="e1Detector_-13025672#0_1_606" lane="-13025672#0_1" pos="0.09" freq="86400" file="./detoutput/e1Detector.xml"/>
    <e1Detector id="e1Detector_-13025672#2_0_615" lane="-13025672#2_0" pos="544.52" freq="86400" file="./detoutput/e1Detector.xml"/>
    <e1Detector id="e1Detector_-13025672#5_0_620" lane="-13025672#5_0" pos="372.51" freq="86400" file="./detoutput/e1Detector.xml"/>
    <e1Detector id="e1Detector_-13025672#6_0_627" lane="-13025672#6_0" pos="163.60" freq="86400" file="./detoutput/e1Detector.xml"/>
    <e1Detector id="e1Detector_-13025672#7_0_630" lane="-13025672#7_0" pos="68.12" freq="86400" file="./detoutput/e1Detector.xml"/>
    <e1Detector id="e1Detector_-13025672#8_0_633" lane="-13025672#8_0" pos="237.73" freq="86400" file="./detoutput/e1Detector.xml"/>
    <e1Detector id="e1Detector_-13025672#9_0_636" lane="-13025672#9_0" pos="196.35" freq="86400" file="./detoutput/e1Detector.xml"/>
    <e1Detector id="e1Detector_-13025698#0_0_243" lane="-13025698#0_0" pos="0.42" freq="86400" file="./detoutput/e1Detector.xml"/>
    <e1Detector id="e1Detector_-13025698#0_1_244" lane="-13025698#0_1" pos="0.40" freq="86400" file="./detoutput/e1Detector.xml"/>
    <e1Detector id="e1Detector_-13025698#3_0_254" lane="-13025698#3_0" pos="584.89" freq="86400" file="./detoutput/e1Detector.xml"/>
    <e1Detector id="e1Detector_-13035029#1_0_177" lane="-13035029#1_0" pos="285.03" freq="86400" file="./detoutput/e1Detector.xml"/>
    <e1Detector id="e1Detector_-13035029#2_0_182" lane="-13035029#2_0" pos="227.90" freq="86400" file="./detoutput/e1Detector.xml"/>
    <e1Detector id="e1Detector_-13035029#3_0_186" lane="-13035029#3_0" pos="277.34" freq="86400" file="./detoutput/e1Detector.xml"/>
    <e1Detector id="e1Detector_-13035035#0_0_271" lane="-13035035#0_0" pos="590.38" freq="86400" file="./detoutput/e1Detector.xml"/>
    <e1Detector id="e1Detector_-135633001#3_0_218" lane="-135633001#3_0" pos="0.05" freq="86400" file="./detoutput/e1Detector.xml"/>
    <e1Detector id="e1Detector_-135775793#1_0_534" lane="-135775793#1_0" pos="252.07" freq="86400" file="./detoutput/e1Detector.xml"/>
    <e1Detector id="e1Detector_-135775793#2_0_529" lane="-135775793#2_0" pos="242.81" freq="86400" file="./detoutput/e1Detector.xml"/>
    <e1Detector id="e1Detector_-135775793#3_0_524" lane="-135775793#3_0" pos="365.40" freq="86400" file="./detoutput/e1Detector.xml"/>
    <e1Detector id="e1Detector_-135775793#3_1_525" lane="-135775793#3_1" pos="365.49" freq="86400" file="./detoutput/e1Detector.xml"/>
    <e1Detector id="e1Detector_-135775793#5_0_518" lane="-135775793#5_0" pos="1.10" freq="86400" file="./detoutput/e1Detector.xml"/>
    <e1Detector id="e1Detector_-135775793#5_1_519" lane="-135775793#5_1" pos="1.19" freq="86400" file="./detoutput/e1Detector.xml"/>
    <e1Detector id="e1Detector_-135775793#7_0_511" lane="-135775793#7_0" pos="313.72" freq="86400" file="./detoutput/e1Detector.xml"/>
    <e1Detector id="e1Detector_-135775793#7_1_512" lane="-135775793#7_1" pos="314.01" freq="86400" file="./detoutput/e1Detector.xml"/>
    <e1Detector id="e1Detector_-135775793#8_0_504" lane="-135775793#8_0" pos="168.25" freq="86400" file="./detoutput/e1Detector.xml"/>
    <e1Detector id="e1Detector_-135775793#8_1_505" lane="-135775793#8_1" pos="167.82" freq="86400" file="./detoutput/e1Detector.xml"/>
    <e1Detector id="e1Detector_-135775793#8_2_506" lane="-135775793#8_2" pos="167.89" freq="86400" file="./detoutput/e1Detector.xml"/>
    <e1Detector id="e1Detector_-14932190#1_0_693" lane="-14932190#1_0" pos="81.54" freq="86400" file="./detoutput/e1Detector.xml"/>
    <e1Detector id="e1Detector_-14932190#1_1_694" lane="-14932190#1_1" pos="81.59" freq="86400" file="./detoutput/e1Detector.xml"/>
    <e1Detector id="e1Detector_-159942198#3_0_566" lane="-159942198#3_0" pos="559.79" freq="86400" file="./detoutput/e1Detector.xml"/>
    <e1Detector id="e1Detector_-159942198#3_1_567" lane="-159942198#3_1" pos="560.08" freq="86400" file="./detoutput/e1Detector.xml"/>
    <e1Detector id="e1Detector_-168899775#1_0_275" lane="-168899775#1_0" pos="340.73" freq="86400" file="./detoutput/e1Detector.xml"/>
    <e1Detector id="e1Detector_-168899775#2_0_281" lane="-168899775#2_0" pos="236.67" freq="86400" file="./detoutput/e1Detector.xml"/>
    <e1Detector id="e1Detector_-168969705#1_0_370" lane="-168969705#1_0" pos="68.36" freq="86400" file="./detoutput/e1Detector.xml"/>
    <e1Detector id="e1Detector_-168969705#3_0_242" lane="-168969705#3_0" pos="253.63" freq="86400" file="./detoutput/e1Detector.xml"/>
    <e1Detector id="e1Detector_-168970622#0_0_20" lane="-168970622#0_0" pos="124.53" freq="86400" file="./detoutput/e1Detector.xml"/>
    <e1Detector id="e1Detector_-168970622#0_1_21" lane="-168970622#0_1" pos="124.58" freq="86400" file="./detoutput/e1Detector.xml"/>
    <e1Detector id="e1Detector_-168970622#11_0_387" lane="-168970622#11_0" pos="92.42" freq="86400" file="./detoutput/e1Detector.xml"/>
    <e1Detector id="e1Detector_-168970622#11_1_388" lane="-168970622#11_1" pos="92.92" freq="86400" file="./detoutput/e1Detector.xml"/>
    <e1Detector id="e1Detector_-168970622#14_0_502" lane="-168970622#14_0" pos="332.55" freq="86400" file="./detoutput/e1Detector.xml"/>
    <e1Detector id="e1Detector_-168970622#14_1_503" lane="-168970622#14_1" pos="332.82" freq="86400" file="./detoutput/e1Detector.xml"/>
    <e1Detector id="e1Detector_-168970622#15_0_616" lane="-168970622#15_0" pos="286.72" freq="86400" file="./detoutput/e1Detector.xml"/>
    <e1Detector id="e1Detector_-168970622#1_0_64" lane="-168970622#1_0" pos="181.00" freq="86400" file="./detoutput/e1Detector.xml"/>
    <e1Detector id="e1Detector_-168970622#5_0_104" lane="-168970622#5_0" pos="221.45" freq="86400" file="./detoutput/e1Detector.xml"/>
    <e1Detector id="e1Detector_-168970622#5_1_105" lane="-168970622#5_1" pos="221.63" freq="86400" file="./detoutput/e1Detector.xml"/>
    <e1Detector id="e1Detector_-168970622#7_0_255" lane="-168970622#7_0" pos="270.29" freq="86400" file="./detoutput/e1Detector.xml"/>
    <e1Detector id="e1Detector_-168970622#9_0_272" lane="-168970622#9_0" pos="65.40" freq="86400" file="./detoutput/e1Detector.xml"/>
    <e1Detector id="e1Detector_-178444040_0_26" lane="-178444040_0" pos="486.88" freq="86400" file="./detoutput/e1Detector.xml"/>
    <e1Detector id="e1Detector_-178525597#0_0_292" lane="-178525597#0_0" pos="108.42" freq="86400" file="./detoutput/e1Detector.xml"/>
    <e1Detector id="e1Detector_-178525597#1_0_270" lane="-178525597#1_0" pos="245.50" freq="86400" file="./detoutput/e1Detector.xml"/>
    <e1Detector id="e1Detector_-178525597#2_0_192" lane="-178525597#2_0" pos="267.49" freq="86400" file="./detoutput/e1Detector.xml"/>
    <e1Detector id="e1Detector_-178525601#1_0_532" lane="-178525601#1_0" pos="282.51" freq="86400" file="./detoutput/e1Detector.xml"/>
    <e1Detector id="e1Detector_-178525601#1_1_533" lane="-178525601#1_1" pos="282.42" freq="86400" file="./detoutput/e1Detector.xml"/>
    <e1Detector id="e1Detector_-178525601#2_0_637" lane="-178525601#2_0" pos="309.06" freq="86400" file="./detoutput/e1Detector.xml"/>
    <e1Detector id="e1Detector_-178525603_0_431" lane="-178525603_0" pos="187.55" freq="86400" file="./detoutput/e1Detector.xml"/>
    <e1Detector id="e1Detector_-178525603_1_432" lane="-178525603_1" pos="188.19" freq="86400" file="./detoutput/e1Detector.xml"/>
    <e1Detector id="e1Detector_-178525605#0_0_631" lane="-178525605#0_0" pos="328.71" freq="86400" file="./detoutput/e1Detector.xml"/>
    <e1Detector id="e1Detector_-178525607#2_0_416" lane="-178525607#2_0" pos="188.74" freq="86400" file="./detoutput/e1Detector.xml"/>
    <e1Detector id="e1Detector_-178525607#3_0_284" lane="-178525607#3_0" pos="480.62" freq="86400" file="./detoutput/e1Detector.xml"/>
    <e1Detector id="e1Detector_-178525607#4_0_185" lane="-178525607#4_0" pos="237.95" freq="86400" file="./detoutput/e1Detector.xml"/>
    <e1Detector id="e1Detector_-178525612#1_0_426" lane="-178525612#1_0" pos="237.32" freq="86400" file="./detoutput/e1Detector.xml"/>
    <e1Detector id="e1Detector_-178525612#2_0_288" lane="-178525612#2_0" pos="105.36" freq="86400" file="./detoutput/e1Detector.xml"/>
    <e1Detector id="e1Detector_-178525612#3_0_267" lane="-178525612#3_0" pos="251.03" freq="86400" file="./detoutput/e1Detector.xml"/>
    <e1Detector id="e1Detector_-178525612#4_0_189" lane="-178525612#4_0" pos="300.16" freq="86400" file="./detoutput/e1Detector.xml"/>
    <e1Detector id="e1Detector_-237271799#0_0_642" lane="-237271799#0_0" pos="306.99" freq="86400" file="./detoutput/e1Detector.xml"/>
    <e1Detector id="e1Detector_-237271805_0_641" lane="-237271805_0" pos="366.91" freq="86400" file="./detoutput/e1Detector.xml"/>
    <e1Detector id="e1Detector_-237271814_0_140" lane="-237271814_0" pos="254.89" freq="86400" file="./detoutput/e1Detector.xml"/>
    <e1Detector id="e1Detector_-43927115#10_0_175" lane="-43927115#10_0" pos="296.01" freq="86400" file="./detoutput/e1Detector.xml"/>
    <e1Detector id="e1Detector_-43927115#10_1_176" lane="-43927115#10_1" pos="296.19" freq="86400" file="./detoutput/e1Detector.xml"/>
    <e1Detector id="e1Detector_-43927115#11_0_251" lane="-43927115#11_0" pos="264.54" freq="86400" file="./detoutput/e1Detector.xml"/>
    <e1Detector id="e1Detector_-43927115#11_1_252" lane="-43927115#11_1" pos="264.55" freq="86400" file="./detoutput/e1Detector.xml"/>
    <e1Detector id="e1Detector_-43927115#11_2_253" lane="-43927115#11_2" pos="264.69" freq="86400" file="./detoutput/e1Detector.xml"/>
    <e1Detector id="e1Detector_-43927115#12_0_169" lane="-43927115#12_0" pos="42.62" freq="86400" file="./detoutput/e1Detector.xml"/>
    <e1Detector id="e1Detector_-43927115#12_1_170" lane="-43927115#12_1" pos="42.77" freq="86400" file="./detoutput/e1Detector.xml"/>
    <e1Detector id="e1Detector_-43927115#12_2_171" lane="-43927115#12_2" pos="42.99" freq="86400" file="./detoutput/e1Detector.xml"/>
    <e1Detector id="e1Detector_-43927115#16_0_99" lane="-43927115#16_0" pos="187.43" freq="86400" file="./detoutput/e1Detector.xml"/>
    <e1Detector id="e1Detector_-43927115#16_1_100" lane="-43927115#16_1" pos="187.18" freq="86400" file="./detoutput/e1Detector.xml"/>
    <e1Detector id="e1Detector_-43927115#4_0_613" lane="-43927115#4_0" pos="338.46" freq="86400" file="./detoutput/e1Detector.xml"/>
    <e1Detector id="e1Detector_-43927115#4_1_614" lane="-43927115#4_1" pos="338.58" freq="86400" file="./detoutput/e1Detector.xml"/>
    <e1Detector id="e1Detector_-43927115#5_0_497" lane="-43927115#5_0" pos="75.62" freq="86400" file="./detoutput/e1Detector.xml"/>
    <e1Detector id="e1Detector_-43927115#5_1_498" lane="-43927115#5_1" pos="75.89" freq="86400" file="./detoutput/e1Detector.xml"/>
    <e1Detector id="e1Detector_-43927115#5_2_499" lane="-43927115#5_2" pos="76.15" freq="86400" file="./detoutput/e1Detector.xml"/>
    <e1Detector id="e1Detector_-43927115#9_0_381" lane="-43927115#9_0" pos="59.18" freq="86400" file="./detoutput/e1Detector.xml"/>
    <e1Detector id="e1Detector_-43927115#9_1_382" lane="-43927115#9_1" pos="59.00" freq="86400" file="./detoutput/e1Detector.xml"/>
    <e1Detector id="e1Detector_-43927335#1_0_688" lane="-43927335#1_0" pos="53.77" freq="86400" file="./detoutput/e1Detector.xml"/>
    <e1Detector id="e1Detector_-43930377#1_0_709" lane="-43930377#1_0" pos="191.24" freq="86400" file="./detoutput/e1Detector.xml"/>
    <e1Detector id="e1Detector_-43930377#1_1_710" lane="-43930377#1_1" pos="191.68" freq="86400" file="./detoutput/e1Detector.xml"/>
    <e1Detector id="e1Detector_-43930377#4_0_737" lane="-43930377#4_0" pos="316.97" freq="86400" file="./detoutput/e1Detector.xml"/>
    <e1Detector id="e1Detector_-47279969#1_0_118" lane="-47279969#1_0" pos="228.40" freq="86400" file="./detoutput/e1Detector.xml"/>
    <e1Detector id="e1Detector_-47279969#1_1_119" lane="-47279969#1_1" pos="228.50" freq="86400" file="./detoutput/e1Detector.xml"/>
    <e1Detector id="e1Detector_-47279969#2_0_124" lane="-47279969#2_0" pos="209.65" freq="86400" file="./detoutput/e1Detector.xml"/>
    <e1Detector id="e1Detector_-47279969#2_1_125" lane="-47279969#2_1" pos="209.67" freq="86400" file="./detoutput/e1Detector.xml"/>
    <e1Detector id="e1Detector_-47279971#1_0_126" lane="-47279971#1_0" pos="252.00" freq="86400" file="./detoutput/e1Detector.xml"/>
    <e1Detector id="e1Detector_-47279971#1_1_127" lane="-47279971#1_1" pos="252.27" freq="86400" file="./detoutput/e1Detector.xml"/>
    <e1Detector id="e1Detector_-47280266#1_0_71" lane="-47280266#1_0" pos="967.86" freq="86400" file="./detoutput/e1Detector.xml"/>
    <e1Detector id="e1Detector_-47280266#1_1_72" lane="-47280266#1_1" pos="966.64" freq="86400" file="./detoutput/e1Detector.xml"/>
    <e1Detector id="e1Detector_-47280266#2_0_65" lane="-47280266#2_0" pos="304.56" freq="86400" file="./detoutput/e1Detector.xml"/>
    <e1Detector id="e1Detector_-47280266#2_1_66" lane="-47280266#2_1" pos="304.50" freq="86400" file="./detoutput/e1Detector.xml"/>
    <e1Detector id="e1Detector_-47280266#3_0_59" lane="-47280266#3_0" pos="236.35" freq="86400" file="./detoutput/e1Detector.xml"/>
    <e1Detector id="e1Detector_-47280266#3_1_60" lane="-47280266#3_1" pos="236.69" freq="86400" file="./detoutput/e1Detector.xml"/>
    <e1Detector id="e1Detector_-47313756#7_0_289" lane="-47313756#7_0" pos="425.94" freq="86400" file="./detoutput/e1Detector.xml"/>
    <e1Detector id="e1Detector_-47313760_0_265" lane="-47313760_0" pos="283.64" freq="86400" file="./detoutput/e1Detector.xml"/>
    <e1Detector id="e1Detector_-47322403_0_56" lane="-47322403_0" pos="103.20" freq="86400" file="./detoutput/e1Detector.xml"/>
    <e1Detector id="e1Detector_-499430058#1_0_22" lane="-499430058#1_0" pos="300.09" freq="86400" file="./detoutput/e1Detector.xml"/>
    <e1Detector id="e1Detector_-499430058#2_0_18" lane="-499430058#2_0" pos="270.76" freq="86400" file="./detoutput/e1Detector.xml"/>
    <e1Detector id="e1Detector_-499430058#3_0_13" lane="-499430058#3_0" pos="296.58" freq="86400" file="./detoutput/e1Detector.xml"/>
    <e1Detector id="e1Detector_-499430058#3_1_14" lane="-499430058#3_1" pos="296.50" freq="86400" file="./detoutput/e1Detector.xml"/>
    <e1Detector id="e1Detector_-499430058#4_0_8" lane="-499430058#4_0" pos="428.85" freq="86400" file="./detoutput/e1Detector.xml"/>
    <e1Detector id="e1Detector_-499430058#4_1_9" lane="-499430058#4_1" pos="428.99" freq="86400" file="./detoutput/e1Detector.xml"/>
    <e1Detector id="e1Detector_-499430058#7_0" lane="-499430058#7_0" pos="236.27" freq="86400" file="./detoutput/e1Detector.xml"/>
    <e1Detector id="e1Detector_-499430058#7_1" lane="-499430058#7_1" pos="236.27" freq="86400" file="./detoutput/e1Detector.xml"/>
    <e1Detector id="e1Detector_-499430068_0_61" lane="-499430068_0" pos="107.62" freq="86400" file="./detoutput/e1Detector.xml"/>
    <e1Detector id="e1Detector_100820769#0_0_40" lane="100820769#0_0" pos="357.79" freq="86400" file="./detoutput/e1Detector.xml"/>
    <e1Detector id="e1Detector_100820769#0_1_41" lane="100820769#0_1" pos="358.05" freq="86400" file="./detoutput/e1Detector.xml"/>
    <e1Detector id="e1Detector_100820769#1_0_30" lane="100820769#1_0" pos="410.28" freq="86400" file="./detoutput/e1Detector.xml"/>
    <e1Detector id="e1Detector_100820769#1_1_31" lane="100820769#1_1" pos="410.56" freq="86400" file="./detoutput/e1Detector.xml"/>
    <e1Detector id="e1Detector_100820769#5_0_23" lane="100820769#5_0" pos="82.16" freq="86400" file="./detoutput/e1Detector.xml"/>
    <e1Detector id="e1Detector_100820769#5_1_24" lane="100820769#5_1" pos="82.79" freq="86400" file="./detoutput/e1Detector.xml"/>
    <e1Detector id="e1Detector_10210557_0_290" lane="10210557_0" pos="294.41" freq="86400" file="./detoutput/e1Detector.xml"/>
    <e1Detector id="e1Detector_10341672#1_0_538" lane="10341672#1_0" pos="162.94" freq="86400" file="./detoutput/e1Detector.xml"/>
    <e1Detector id="e1Detector_10360980#0_0_345" lane="10360980#0_0" pos="42.88" freq="86400" file="./detoutput/e1Detector.xml"/>
    <e1Detector id="e1Detector_10360980#0_1_346" lane="10360980#0_1" pos="42.29" freq="86400" file="./detoutput/e1Detector.xml"/>
    <e1Detector id="e1Detector_10360980#0_2_347" lane="10360980#0_2" pos="42.26" freq="86400" file="./detoutput/e1Detector.xml"/>
    <e1Detector id="e1Detector_10360980#0_3_348" lane="10360980#0_3" pos="42.49" freq="86400" file="./detoutput/e1Detector.xml"/>
    <e1Detector id="e1Detector_10360980#6_0_548" lane="10360980#6_0" pos="200.95" freq="86400" file="./detoutput/e1Detector.xml"/>
    <e1Detector id="e1Detector_10360980#6_1_549" lane="10360980#6_1" pos="200.94" freq="86400" file="./detoutput/e1Detector.xml"/>
    <e1Detector id="e1Detector_10360980#6_2_550" lane="10360980#6_2" pos="200.84" freq="86400" file="./detoutput/e1Detector.xml"/>
    <e1Detector id="e1Detector_10360980#6_3_551" lane="10360980#6_3" pos="200.77" freq="86400" file="./detoutput/e1Detector.xml"/>
    <e1Detector id="e1Detector_10360980#7_0_594" lane="10360980#7_0" pos="314.73" freq="86400" file="./detoutput/e1Detector.xml"/>
    <e1Detector id="e1Detector_10360980#7_1_595" lane="10360980#7_1" pos="314.70" freq="86400" file="./detoutput/e1Detector.xml"/>
    <e1Detector id="e1Detector_10360980#7_2_596" lane="10360980#7_2" pos="314.19" freq="86400" file="./detoutput/e1Detector.xml"/>
    <e1Detector id="e1Detector_10360980#7_3_597" lane="10360980#7_3" pos="314.19" freq="86400" file="./detoutput/e1Detector.xml"/>
    <e1Detector id="e1Detector_10581227#1_0_389" lane="10581227#1_0" pos="111.05" freq="86400" file="./detoutput/e1Detector.xml"/>
    <e1Detector id="e1Detector_10581227#1_1_390" lane="10581227#1_1" pos="110.13" freq="86400" file="./detoutput/e1Detector.xml"/>
    <e1Detector id="e1Detector_10581227#1_2_391" lane="10581227#1_2" pos="110.51" freq="86400" file="./detoutput/e1Detector.xml"/>
    <e1Detector id="e1Detector_10581227#1_3_392" lane="10581227#1_3" pos="110.78" freq="86400" file="./detoutput/e1Detector.xml"/>
    <e1Detector id="e1Detector_10581227#3_0_401" lane="10581227#3_0" pos="0.86" freq="86400" file="./detoutput/e1Detector.xml"/>
    <e1Detector id="e1Detector_10581227#3_1_402" lane="10581227#3_1" pos="1.26" freq="86400" file="./detoutput/e1Detector.xml"/>
    <e1Detector id="e1Detector_10581227#3_2_403" lane="10581227#3_2" pos="0.92" freq="86400" file="./detoutput/e1Detector.xml"/>
    <e1Detector id="e1Detector_10581227#3_3_404" lane="10581227#3_3" pos="0.37" freq="86400" file="./detoutput/e1Detector.xml"/>
    <e1Detector id="e1Detector_10581227#5_0_412" lane="10581227#5_0" pos="360.41" freq="86400" file="./detoutput/e1Detector.xml"/>
    <e1Detector id="e1Detector_10581227#5_1_413" lane="10581227#5_1" pos="360.53" freq="86400" file="./detoutput/e1Detector.xml"/>
    <e1Detector id="e1Detector_10581227#5_2_414" lane="10581227#5_2" pos="360.41" freq="86400" file="./detoutput/e1Detector.xml"/>
    <e1Detector id="e1Detector_10581227#5_3_415" lane="10581227#5_3" pos="360.47" freq="86400" file="./detoutput/e1Detector.xml"/>
    <e1Detector id="e1Detector_10581227#6_0_422" lane="10581227#6_0" pos="235.54" freq="86400" file="./detoutput/e1Detector.xml"/>
    <e1Detector id="e1Detector_10581227#6_1_423" lane="10581227#6_1" pos="235.06" freq="86400" file="./detoutput/e1Detector.xml"/>
    <e1Detector id="e1Detector_10581227#6_2_424" lane="10581227#6_2" pos="235.01" freq="86400" file="./detoutput/e1Detector.xml"/>
    <e1Detector id="e1Detector_10581227#6_3_425" lane="10581227#6_3" pos="235.56" freq="86400" file="./detoutput/e1Detector.xml"/>
    <e1Detector id="e1Detector_10581227#7_0_433" lane="10581227#7_0" pos="289.99" freq="86400" file="./detoutput/e1Detector.xml"/>
    <e1Detector id="e1Detector_10581227#7_1_434" lane="10581227#7_1" pos="289.71" freq="86400" file="./detoutput/e1Detector.xml"/>
    <e1Detector id="e1Detector_10581227#7_2_435" lane="10581227#7_2" pos="289.21" freq="86400" file="./detoutput/e1Detector.xml"/>
    <e1Detector id="e1Detector_10581227#7_3_436" lane="10581227#7_3" pos="289.40" freq="86400" file="./detoutput/e1Detector.xml"/>
    <e1Detector id="e1Detector_10581227#9_0_443" lane="10581227#9_0" pos="206.51" freq="86400" file="./detoutput/e1Detector.xml"/>
    <e1Detector id="e1Detector_10581227#9_1_444" lane="10581227#9_1" pos="206.74" freq="86400" file="./detoutput/e1Detector.xml"/>
    <e1Detector id="e1Detector_10581227#9_2_445" lane="10581227#9_2" pos="206.76" freq="86400" file="./detoutput/e1Detector.xml"/>
    <e1Detector id="e1Detector_10581227#9_3_446" lane="10581227#9_3" pos="206.90" freq="86400" file="./detoutput/e1Detector.xml"/>
    <e1Detector id="e1Detector_10627797#0_0_324" lane="10627797#0_0" pos="42.70" freq="86400" file="./detoutput/e1Detector.xml"/>
    <e1Detector id="e1Detector_10627797#0_1_325" lane="10627797#0_1" pos="42.65" freq="86400" file="./detoutput/e1Detector.xml"/>
    <e1Detector id="e1Detector_10627797#0_2_326" lane="10627797#0_2" pos="42.32" freq="86400" file="./detoutput/e1Detector.xml"/>
    <e1Detector id="e1Detector_10627797#0_3_327" lane="10627797#0_3" pos="43.04" freq="86400" file="./detoutput/e1Detector.xml"/>
    <e1Detector id="e1Detector_10627797#3_0_341" lane="10627797#3_0" pos="0.58" freq="86400" file="./detoutput/e1Detector.xml"/>
    <e1Detector id="e1Detector_10627797#3_1_342" lane="10627797#3_1" pos="0.83" freq="86400" file="./detoutput/e1Detector.xml"/>
    <e1Detector id="e1Detector_10627797#3_2_343" lane="10627797#3_2" pos="0.39" freq="86400" file="./detoutput/e1Detector.xml"/>
    <e1Detector id="e1Detector_10627797#3_3_344" lane="10627797#3_3" pos="0.77" freq="86400" file="./detoutput/e1Detector.xml"/>
    <e1Detector id="e1Detector_10627798#1_0_301" lane="10627798#1_0" pos="731.86" freq="86400" file="./detoutput/e1Detector.xml"/>
    <e1Detector id="e1Detector_10627798#1_1_302" lane="10627798#1_1" pos="732.08" freq="86400" file="./detoutput/e1Detector.xml"/>
    <e1Detector id="e1Detector_10627798#1_2_303" lane="10627798#1_2" pos="731.85" freq="86400" file="./detoutput/e1Detector.xml"/>
    <e1Detector id="e1Detector_10627798#1_3_304" lane="10627798#1_3" pos="732.08" freq="86400" file="./detoutput/e1Detector.xml"/>
    <e1Detector id="e1Detector_10627798#3_0_312" lane="10627798#3_0" pos="138.97" freq="86400" file="./detoutput/e1Detector.xml"/>
    <e1Detector id="e1Detector_10627798#3_1_313" lane="10627798#3_1" pos="139.00" freq="86400" file="./detoutput/e1Detector.xml"/>
    <e1Detector id="e1Detector_10627798#3_2_314" lane="10627798#3_2" pos="138.79" freq="86400" file="./detoutput/e1Detector.xml"/>
    <e1Detector id="e1Detector_10627798#3_3_315" lane="10627798#3_3" pos="138.90" freq="86400" file="./detoutput/e1Detector.xml"/>
    <e1Detector id="e1Detector_10627804#3_0_678" lane="10627804#3_0" pos="113.97" freq="86400" file="./detoutput/e1Detector.xml"/>
    <e1Detector id="e1Detector_10627804#3_1_679" lane="10627804#3_1" pos="113.61" freq="86400" file="./detoutput/e1Detector.xml"/>
    <e1Detector id="e1Detector_10627815#0_0_682" lane="10627815#0_0" pos="85.40" freq="86400" file="./detoutput/e1Detector.xml"/>
    <e1Detector id="e1Detector_10627815#0_1_683" lane="10627815#0_1" pos="85.42" freq="86400" file="./detoutput/e1Detector.xml"/>
    <e1Detector id="e1Detector_10627817#0_0_652" lane="10627817#0_0" pos="245.87" freq="86400" file="./detoutput/e1Detector.xml"/>
    <e1Detector id="e1Detector_10627817#0_1_653" lane="10627817#0_1" pos="245.73" freq="86400" file="./detoutput/e1Detector.xml"/>
    <e1Detector id="e1Detector_10627817#0_2_654" lane="10627817#0_2" pos="246.02" freq="86400" file="./detoutput/e1Detector.xml"/>
    <e1Detector id="e1Detector_10627817#0_3_655" lane="10627817#0_3" pos="245.73" freq="86400" file="./detoutput/e1Detector.xml"/>
    <e1Detector id="e1Detector_10628020#2_0_645" lane="10628020#2_0" pos="246.93" freq="86400" file="./detoutput/e1Detector.xml"/>
    <e1Detector id="e1Detector_10628020#2_1_646" lane="10628020#2_1" pos="247.20" freq="86400" file="./detoutput/e1Detector.xml"/>
    <e1Detector id="e1Detector_10628020#2_2_647" lane="10628020#2_2" pos="247.28" freq="86400" file="./detoutput/e1Detector.xml"/>