<?xml version="1.0" encoding="UTF-8"?>

<configuration xmlns:xsi="http://www.w3.org/2001/XMLSchema-instance" xsi:noNamespaceSchemaLocation="http://sumo.dlr.de/xsd/sumoConfiguration.xsd">

    <input>
        <net-file value="pudong100.net.xml"/>
        <route-files value="test24.trips.xml"/>
        <additional-files value="detectorPudong.add.xml"/>
    </input>
	
	<step-length value="0.1"/>

</configuration>