<?xml version="1.0" encoding="UTF-8"?>

<!-- generated on 06/05/20 10:24:28 by Eclipse SUMO duarouter Version 1.3.0
<configuration xmlns:xsi="http://www.w3.org/2001/XMLSchema-instance" xsi:noNamespaceSchemaLocation="http://sumo.dlr.de/xsd/duarouterConfiguration.xsd">

    <input>
        <net-file value="pudong100.net.xml"/>
        <route-files value="test.trips.xml"/>
    </input>

    <output>
        <output-file value="test.trips.xml.tmp"/>
        <write-trips value="true"/>
    </output>

    <time>
        <begin value="0"/>
        <end value="7200.0"/>
    </time>

    <report>
        <no-warnings value="true"/>
        <ignore-errors value="true"/>
        <no-step-log value="true"/>
    </report>

</configuration>
-->

<routes xmlns:xsi="http://www.w3.org/2001/XMLSchema-instance" xsi:noNamespaceSchemaLocation="http://sumo.dlr.de/xsd/routes_file.xsd">
    <trip id="0" depart="0.00" from="12080429#2" to="-178525612#5"/>
    <trip id="1" depart="0.30" from="49139480" to="-12081602#6"/>
    <trip id="2" depart="0.60" from="10724842#1" to="11771575#1"/>
    <trip id="3" depart="0.90" from="13025659#1" to="43927166#1"/>
    <trip id="5" depart="1.50" from="-135775789" to="13035029#1"/>
    <trip id="6" depart="1.80" from="14053018#10" to="47280264#1"/>
    <trip id="7" depart="2.10" from="142019450#0" to="100820769#5"/>
    <trip id="8" depart="2.40" from="10639453#2" to="10632113#9"/>
    <trip id="9" depart="2.70" from="47315449#16" to="169193804#3"/>
    <trip id="10" depart="3.00" from="49145639#0" to="237271809#14"/>
    <trip id="11" depart="3.30" from="-10045010#3" to="142019447#0"/>
    <trip id="12" depart="3.60" from="135775793#3" to="10724842#2"/>
    <trip id="13" depart="3.90" from="43927096#2" to="12620630#4"/>
    <trip id="14" depart="4.20" from="-169193805" to="10360983"/>
    <trip id="15" depart="4.50" from="237271809#12" to="43927166#1"/>
    <trip id="16" depart="4.80" from="-10341672#2" to="-13025672#9"/>
    <trip id="17" depart="5.10" from="12081594" to="10360980#7"/>
    <trip id="18" depart="5.40" from="13025659#0" to="10581227#0"/>
    <trip id="20" depart="6.00" from="168899774#1" to="10639460#7"/>
    <trip id="21" depart="6.30" from="-766889625#1" to="355480213"/>
    <trip id="22" depart="6.60" from="10596244#1" to="49145639#2"/>
    <trip id="23" depart="6.90" from="10632124#0" to="43927115#0"/>
    <trip id="24" depart="7.20" from="43927318" to="160163187#7"/>
    <trip id="25" depart="7.50" from="178936215#0" to="13025698#3"/>
    <trip id="26" depart="7.80" from="169004591#3" to="160163187#12"/>
    <trip id="27" depart="8.10" from="47323592#13" to="10692876#6"/>
    <trip id="28" depart="8.40" from="169004585#2" to="160163187#2"/>
    <trip id="29" depart="8.70" from="13035035#0" to="159942198#1"/>
    <trip id="30" depart="9.00" from="10497501#1" to="168970622#6"/>
    <trip id="31" depart="9.30" from="43927157" to="-10724842#2"/>
    <trip id="32" depart="9.60" from="12048314#0" to="-12081602#0"/>
    <trip id="33" depart="9.90" from="12048353#0" to="-499430058#1"/>
    <trip id="34" depart="10.20" from="12627066#9" to="43930375#7"/>
    <trip id="35" depart="10.50" from="-733763277" to="-75713661"/>
    <trip id="36" depart="10.80" from="-10639453#1" to="-733763276"/>
    <trip id="37" depart="11.10" from="-13035029#2" to="47313760"/>
    <trip id="38" depart="11.40" from="8727018#0" to="160163156#4"/>
    <trip id="39" depart="11.70" from="-43927652#1" to="10211982"/>
    <trip id="40" depart="12.00" from="-10722473#1" to="10497501#0"/>
    <trip id="41" depart="12.30" from="-43927115#10" to="-178525612#2"/>
    <trip id="42" depart="12.60" from="169004591#3" to="8792376#11"/>
    <trip id="43" depart="12.90" from="178525605#0" to="10628020#5"/>
    <trip id="44" depart="13.20" from="10686483#0" to="47323592#2"/>
    <trip id="45" depart="13.50" from="-766889624#1" to="43930378#1"/>
    <trip id="46" depart="13.80" from="12048314#0" to="43930377#4"/>
    <trip id="47" depart="14.10" from="178525612#2" to="165239988#1"/>
    <trip id="48" depart="14.40" from="10559221" to="169193758#0"/>
    <trip id="49" depart="14.70" from="43927096#2" to="43927652#0"/>
    <trip id="50" depart="15.00" from="10632113#6" to="10268485"/>
    <trip id="51" depart="15.30" from="142022650#1" to="160163187#6"/>
    <trip id="52" depart="15.60" from="10596239#2" to="142019447#1"/>
    <trip id="54" depart="16.20" from="160163187#3" to="727248705"/>
    <trip id="55" depart="16.50" from="-43927115#4" to="135775793#6"/>
    <trip id="56" depart="16.80" from="10692910#0" to="10627815#3"/>
    <trip id="57" depart="17.10" from="14053057" to="160163187#12"/>
    <trip id="58" depart="17.40" from="49139479#1" to="10639490#0"/>
    <trip id="59" depart="17.70" from="-13035029#1" to="8792376#10"/>
    <trip id="60" depart="18.00" from="10639453#3" to="135721894#1"/>
    <trip id="61" depart="18.30" from="10559221" to="10581227#6"/>
    <trip id="62" depart="18.60" from="10692889#0" to="-135775793#7"/>
    <trip id="63" depart="18.90" from="71236751#1" to="321842502#0"/>
    <trip id="64" depart="19.20" from="10691128#0" to="-135775787"/>
    <trip id="65" depart="19.50" from="43927096#5" to="47281513"/>
    <trip id="66" depart="19.80" from="237271815#0" to="13025672#9"/>
    <trip id="67" depart="20.10" from="10639453#12" to="-135765852"/>
    <trip id="68" depart="20.40" from="135633001#1" to="100820769#1"/>
    <trip id="69" depart="20.70" from="-135775791" to="43927157"/>
    <trip id="70" depart="21.00" from="10639453#6" to="-135775791"/>
    <trip id="71" depart="21.30" from="43930338#0" to="-43927335#1"/>
    <trip id="72" depart="21.60" from="10627798#5" to="-47315337#3"/>
    <trip id="73" depart="21.90" from="14053018#4" to="499430068"/>
    <trip id="74" depart="22.20" from="-135633001#3" to="135775793#2"/>
    <trip id="75" depart="22.50" from="14931561#0" to="13038774#3"/>
    <trip id="76" depart="22.80" from="-10639453#13" to="13025672#2"/>
    <trip id="77" depart="23.10" from="-12618613#2" to="10691116#1"/>
    <trip id="78" depart="23.40" from="-135775791" to="10639453#13"/>
    <trip id="81" depart="24.30" from="10670773#6" to="10558324#18"/>
    <trip id="82" depart="24.60" from="237271809#10" to="10581225#2"/>
    <trip id="83" depart="24.90" from="8792376#4" to="100820769#0"/>
    <trip id="84" depart="25.20" from="10417518" to="10596244#0"/>
    <trip id="85" depart="25.50" from="gneE25" to="10345773"/>
    <trip id="86" depart="25.80" from="-237271815#0" to="13025672#9"/>
    <trip id="87" depart="26.10" from="-47313756#7" to="-169004585#1"/>
    <trip id="88" depart="26.40" from="10341643#1" to="766889624#0"/>
    <trip id="89" depart="26.70" from="12629980#0" to="10627816#0"/>
    <trip id="90" depart="27.00" from="-135775793#1" to="9363569#0"/>
    <trip id="91" depart="27.30" from="135775789" to="13035009#0"/>
    <trip id="92" depart="27.60" from="10627804#3" to="159942198#0"/>
    <trip id="93" depart="27.90" from="142019563#2" to="165239988#0"/>
    <trip id="94" depart="28.20" from="49139520" to="136482355#1"/>
    <trip id="95" depart="28.50" from="47283896" to="169004591#14"/>
    <trip id="96" depart="28.80" from="233802736" to="14053018#13"/>
    <trip id="97" depart="29.10" from="135633001#3" to="168970622#11"/>
    <trip id="98" depart="29.40" from="-159942198#3" to="-13025698#3"/>
    <trip id="99" depart="29.70" from="178525601#2" to="-10639453#0"/>
    <trip id="100" depart="30.00" from="233807204" to="14912334#2"/>
    <trip id="101" depart="30.30" from="-237271799#1" to="160163156#6"/>
    <trip id="102" depart="30.60" from="169004591#21" to="100820769#4"/>
    <trip id="103" depart="30.90" from="233807869" to="9529029#2"/>
    <trip id="104" depart="31.20" from="12620630#5" to="12081602#4"/>
    <trip id="105" depart="31.50" from="233807201" to="169193802#0"/>
    <trip id="107" depart="32.10" from="10044942" to="10670773#5"/>
    <trip id="108" depart="32.40" from="10724842#0" to="12618613#2"/>
    <trip id="109" depart="32.70" from="178525607#5" to="168970622#5"/>
    <trip id="110" depart="33.00" from="169004591#21" to="-43930378#2"/>
    <trip id="111" depart="33.30" from="169004591#21" to="10341643#2"/>
    <trip id="112" depart="33.60" from="237271809#9" to="321842502#0"/>
    <trip id="113" depart="33.90" from="733763275#0" to="43930342#0"/>
    <trip id="115" depart="34.50" from="-766889624#1" to="10670773#7"/>
    <trip id="116" depart="34.80" from="12081602#6" to="178444039#0"/>
    <trip id="117" depart="35.10" from="-733763275#1" to="263440662"/>
    <trip id="118" depart="35.40" from="178525605#1" to="282429538"/>
    <trip id="119" depart="35.70" from="10692876#9" to="142019447#7"/>
    <trip id="120" depart="36.00" from="169193760#1" to="10639439#0"/>
    <trip id="121" depart="36.30" from="198406986#0" to="-237271814"/>
    <trip id="122" depart="36.60" from="49139479#1" to="-178936215#3"/>
    <trip id="123" depart="36.90" from="-47315337#3" to="233805003"/>
    <trip id="124" depart="37.20" from="-10692902#3" to="237271809#15"/>
    <trip id="125" depart="37.50" from="423094975" to="263440658#2"/>
    <trip id="126" depart="37.80" from="14912343#3" to="43927624#0"/>
    <trip id="127" depart="38.10" from="-10639460#11" to="-178936215#4"/>
    <trip id="128" depart="38.40" from="-13038774#0" to="14053018#3"/>
    <trip id="129" depart="38.70" from="47323592#8" to="-237271814"/>
    <trip id="130" depart="39.00" from="169004589#1" to="47323592#3"/>
    <trip id="131" depart="39.30" from="-10639460#1" to="233807201"/>
    <trip id="132" depart="39.60" from="10639486#10" to="10691116#1"/>
    <trip id="133" depart="39.90" from="169193757" to="12618613#3"/>
    <trip id="134" depart="40.20" from="47283896" to="-10722473#3"/>
    <trip id="135" depart="40.50" from="499430058#1" to="-321842502#1"/>
    <trip id="136" depart="40.80" from="-766889625#1" to="43927115#1"/>
    <trip id="137" depart="41.10" from="-10686506#2" to="160163156#7"/>
    <trip id="138" depart="41.40" from="14053018#3" to="43930338#2"/>
    <trip id="139" depart="41.70" from="-13025672#8" to="10692876#5"/>
    <trip id="140" depart="42.00" from="169193757" to="178525605#1"/>
    <trip id="141" depart="42.30" from="-10724842#1" to="10692910#0"/>
    <trip id="142" depart="42.60" from="233807870" to="135765845#0"/>
    <trip id="143" depart="42.90" from="49139473" to="47281523"/>
    <trip id="146" depart="43.80" from="263440661#1" to="10627804#5"/>
    <trip id="147" depart="44.10" from="263440661#0" to="160163156#2"/>
    <trip id="148" depart="44.40" from="47323592#22" to="13035038#2"/>
    <trip id="149" depart="44.70" from="-10692889#1" to="11771577#0"/>
    <trip id="150" depart="45.00" from="159942186" to="10639460#11"/>
    <trip id="151" depart="45.30" from="11771575#2" to="-47279971#0"/>
    <trip id="152" depart="45.60" from="-43927115#7" to="10581225#2"/>
    <trip id="153" depart="45.90" from="165239972#1" to="-159942201#1"/>
    <trip id="154" depart="46.20" from="169004591#9" to="49145639#0"/>
    <trip id="155" depart="46.50" from="237271809#6" to="169004591#14"/>
    <trip id="157" depart="47.10" from="168970622#13" to="-10639460#0"/>
    <trip id="158" depart="47.40" from="-10692902#6" to="49139475"/>
    <trip id="159" depart="47.70" from="10639460#10" to="169193804#4"/>
    <trip id="160" depart="48.00" from="10632119" to="12078828"/>
    <trip id="161" depart="48.30" from="47315441#5" to="-263440658#0"/>
    <trip id="162" depart="48.60" from="135775793#3" to="13035009#5"/>
    <trip id="163" depart="48.90" from="8792376#6" to="8792376#4"/>
    <trip id="164" depart="49.20" from="13025659#1" to="12081587#0"/>
    <trip id="165" depart="49.50" from="135775782" to="11771575#1"/>
    <trip id="166" depart="49.80" from="10341663#1" to="-178525610"/>
    <trip id="169" depart="50.70" from="-9363569#3" to="13038774#0"/>
    <trip id="170" depart="51.00" from="-178936215#4" to="71237513"/>
    <trip id="171" depart="51.30" from="135775793#7" to="-10692902#6"/>
    <trip id="172" depart="51.60" from="10670771#1" to="159942190#0"/>
    <trip id="173" depart="51.90" from="47323592#22" to="14912343#1"/>
    <trip id="174" depart="52.20" from="10686483#0" to="-10639453#12"/>
    <trip id="175" depart="52.50" from="10627798#0" to="12078809#3"/>
    <trip id="176" depart="52.80" from="10692876#5" to="10268495"/>
    <trip id="177" depart="53.10" from="10581227#1" to="43927166#2"/>
    <trip id="178" depart="53.40" from="71236751#1" to="12081602#4"/>
    <trip id="179" depart="53.70" from="43930342#1" to="13035024#5"/>
    <trip id="180" depart="54.00" from="14909598#1" to="10627798#5"/>
    <trip id="181" depart="54.30" from="9529029#15" to="135721892"/>
    <trip id="182" depart="54.60" from="10692889#1" to="178525612#2"/>
    <trip id="184" depart="55.20" from="43927115#5" to="-13035066#2"/>
    <trip id="185" depart="55.50" from="14912334#2" to="-168970622#15"/>
    <trip id="186" depart="55.80" from="43927096#2" to="159942194#0"/>
    <trip id="187" depart="56.10" from="257148518#2" to="47323592#15"/>
    <trip id="189" depart="56.70" from="9529029#10" to="142019447#1"/>
    <trip id="190" depart="57.00" from="14909570#0" to="-711158262"/>
    <trip id="191" depart="57.30" from="142019447#7" to="178444039#0"/>
    <trip id="192" depart="57.60" from="12618613#4" to="168899775#1"/>
    <trip id="194" depart="58.20" from="237271809#13" to="43927652#0"/>
    <trip id="195" depart="58.50" from="135721894#1" to="10581227#10"/>
    <trip id="197" depart="59.10" from="237271809#14" to="135765826#1"/>
    <trip id="198" depart="59.40" from="-10639460#18" to="-237271799#1"/>
    <trip id="199" depart="59.70" from="-13035066#2" to="47281526"/>
    <trip id="200" depart="60.00" from="47283773" to="10670773#6"/>
    <trip id="201" depart="60.30" from="10360980#10" to="263440663"/>
    <trip id="202" depart="60.60" from="12618613#9" to="10639460#1"/>
    <trip id="203" depart="60.90" from="168969705#1" to="233803976"/>
    <trip id="204" depart="61.20" from="168899775#1" to="10639460#16"/>
    <trip id="205" depart="61.50" from="-12618613#6" to="-14053057"/>
    <trip id="206" depart="61.80" from="169004591#21" to="12618613#6"/>
    <trip id="207" depart="62.10" from="10670773#1" to="47323592#9"/>
    <trip id="209" depart="62.70" from="-47315301" to="-169193760#1"/>
    <trip id="210" depart="63.00" from="233807204" to="233807870"/>
    <trip id="213" depart="63.90" from="10558324#3" to="10639453#11"/>
    <trip id="214" depart="64.20" from="10045074#0" to="10692866#1"/>
    <trip id="215" depart="64.50" from="8792376#13" to="10632113#6"/>
    <trip id="216" depart="64.80" from="-47280266#2" to="14053018#10"/>
    <trip id="217" depart="65.10" from="47281518" to="13025704#8"/>
    <trip id="218" depart="65.40" from="12618613#4" to="49139214#0"/>
    <trip id="219" depart="65.70" from="160163187#12" to="100820769#1"/>
    <trip id="220" depart="66.00" from="257148518#0" to="12081594"/>
    <trip id="221" depart="66.30" from="13025698#2" to="142019450#0"/>
    <trip id="222" depart="66.60" from="-169193757" to="43927096#9"/>
    <trip id="223" depart="66.90" from="142022650#0" to="-12081602#3"/>
    <trip id="224" depart="67.20" from="10581227#2" to="-168970622#13"/>
    <trip id="225" depart="67.50" from="49139520" to="13035024#8"/>
    <trip id="226" depart="67.80" from="-178525612#6" to="12078809#4"/>
    <trip id="228" depart="68.40" from="47323592#21" to="-766889624#1"/>
    <trip id="229" depart="68.70" from="11771575#2" to="-43927115#4"/>
    <trip id="230" depart="69.00" from="13035038#2" to="10639453#12"/>
    <trip id="231" depart="69.30" from="47279971#1" to="49139480"/>
    <trip id="232" depart="69.60" from="142019563#3" to="49145642#0"/>
    <trip id="233" depart="69.90" from="-10692889#1" to="71237527"/>
    <trip id="234" depart="70.20" from="10670771#2" to="9363569#3"/>
    <trip id="235" depart="70.50" from="169550116" to="237271799#0"/>
    <trip id="236" depart="70.80" from="-12081602#1" to="10360983"/>
    <trip id="237" depart="71.10" from="47323592#16" to="10670771#2"/>
    <trip id="238" depart="71.40" from="-168970622#1" to="169004591#14"/>
    <trip id="239" depart="71.70" from="10689621#6" to="10627798#6"/>
    <trip id="240" depart="72.00" from="-733763277" to="13035029#1"/>
    <trip id="241" depart="72.30" from="14053018#7" to="71237513"/>
    <trip id="242" depart="72.60" from="-159942198#2" to="14912343#2"/>
    <trip id="243" depart="72.90" from="178525605#1" to="136482355#1"/>
    <trip id="244" depart="73.20" from="-10724842#2" to="178936215#2"/>
    <trip id="247" depart="74.10" from="727248701" to="-237271799#0"/>
    <trip id="249" depart="74.70" from="237271818#1" to="425957264#0"/>
    <trip id="250" depart="75.00" from="165239964#3" to="13025672#5"/>
    <trip id="251" depart="75.30" from="-168969705#2" to="24462312#2"/>
    <trip id="253" depart="75.90" from="178444039#2" to="10686483#2"/>
    <trip id="254" depart="76.20" from="142019447#1" to="-135765842#2"/>
    <trip id="255" depart="76.50" from="142022647#1" to="10628024"/>
    <trip id="256" depart="76.80" from="9363569#2" to="135775793#2"/>
    <trip id="257" depart="77.10" from="-12618613#4" to="11771579#1"/>
    <trip id="258" depart="77.40" from="10341673" to="-13035029#2"/>
    <trip id="259" depart="77.70" from="257148518#0" to="47280266#2"/>
    <trip id="260" depart="78.00" from="237271809#1" to="-178525603"/>
    <trip id="261" depart="78.30" from="-10692889#1" to="-13025698#4"/>
    <trip id="262" depart="78.60" from="237271809#1" to="14053018#8"/>
    <trip id="263" depart="78.90" from="10484164#0" to="169193804#2"/>
    <trip id="264" depart="79.20" from="233807200" to="10581227#6"/>
    <trip id="265" depart="79.50" from="168969705#2" to="10724843#1"/>
    <trip id="266" depart="79.80" from="14912343#2" to="13025672#5"/>
    <trip id="267" depart="80.10" from="-263440658#0" to="-43927624#0"/>
    <trip id="268" depart="80.40" from="766889624#0" to="136482355#1"/>
    <trip id="269" depart="80.70" from="-10639460#11" to="135775793#8"/>
    <trip id="270" depart="81.00" from="168969705#3" to="43927652#1"/>
    <trip id="271" depart="81.30" from="-178525612#2" to="169009260"/>
    <trip id="272" depart="81.60" from="198406987" to="169193802#2"/>
    <trip id="273" depart="81.90" from="12620630#5" to="211088077"/>
    <trip id="274" depart="82.20" from="178848104#19" to="-135765845#1"/>
    <trip id="275" depart="82.50" from="11188417" to="10639490#0"/>
    <trip id="276" depart="82.80" from="10692876#2" to="-11729219#3"/>
    <trip id="277" depart="83.10" from="-43927115#10" to="9529029#10"/>
    <trip id="278" depart="83.40" from="-12048353#4" to="168969705#2"/>
    <trip id="280" depart="84.00" from="71236762" to="47315441#5"/>
    <trip id="281" depart="84.30" from="168969705#1" to="237271799#1"/>
    <trip id="282" depart="84.60" from="10724843#2" to="14053018#9"/>
    <trip id="283" depart="84.90" from="-169193804#2" to="-135775789"/>
    <trip id="284" depart="85.20" from="160163201" to="165239964#0"/>
    <trip id="285" depart="85.50" from="-733763275#1" to="-733763277"/>
    <trip id="286" depart="85.80" from="12080425" to="14909570#1"/>
    <trip id="287" depart="86.10" from="10692866#1" to="621872119"/>
    <trip id="288" depart="86.40" from="-135765842#2" to="499430058#2"/>
    <trip id="289" depart="86.70" from="43930378#2" to="13025698#2"/>
    <trip id="290" depart="87.00" from="43930375#3" to="-10045010#1"/>
    <trip id="291" depart="87.30" from="-282429538" to="168899775#1"/>
    <trip id="292" depart="87.60" from="gneE25" to="10627798#5"/>
    <trip id="294" depart="88.20" from="-43927115#9" to="321842502#0"/>
    <trip id="296" depart="88.80" from="-47313760" to="9529029#9"/>
    <trip id="297" depart="89.10" from="-263440658#1" to="10691128#2"/>
    <trip id="298" depart="89.40" from="14912343#3" to="14053057"/>
    <trip id="299" depart="89.70" from="142019450#0" to="10639453#6"/>
    <trip id="300" depart="90.00" from="160163187#12" to="10692866#2"/>
    <trip id="301" depart="90.30" from="10558324#12" to="49145639#1"/>
    <trip id="302" depart="90.60" from="-43927115#7" to="733763277"/>
    <trip id="303" depart="90.90" from="10044942" to="13025672#2"/>
    <trip id="304" depart="91.20" from="-13035035#1" to="233807754"/>
    <trip id="305" depart="91.50" from="-178936215#0" to="47279969#3"/>
    <trip id="306" depart="91.80" from="13025693#1" to="14912334#4"/>
    <trip id="307" depart="92.10" from="-178525612#5" to="14053018#12"/>
    <trip id="308" depart="92.40" from="-10639460#3" to="8792376#8"/>
    <trip id="309" depart="92.70" from="211088077" to="10639460#3"/>
    <trip id="310" depart="93.00" from="gneE18" to="711158262"/>
    <trip id="311" depart="93.30" from="766889625#0" to="-12618613#6"/>
    <trip id="312" depart="93.60" from="160163156#4" to="-43930377#4"/>
    <trip id="313" depart="93.90" from="14053018#6" to="49139474#1"/>
    <trip id="314" depart="94.20" from="178936215#4" to="14912343#3"/>
    <trip id="315" depart="94.50" from="-135775793#2" to="13025672#5"/>
    <trip id="316" depart="94.80" from="10341643#0" to="39149255#7"/>
    <trip id="318" depart="95.40" from="14931561#1" to="233807200"/>
    <trip id="319" depart="95.70" from="169004591#14" to="135633001#1"/>
    <trip id="320" depart="96.00" from="169004591#10" to="178525601#2"/>
    <trip id="321" depart="96.30" from="-43927115#14" to="-178525612#6"/>
    <trip id="322" depart="96.60" from="-178525597#4" to="160163187#1"/>
    <trip id="323" depart="96.90" from="13035038#2" to="13035024#9"/>
    <trip id="324" depart="97.20" from="9529029#7" to="178444039#2"/>
    <trip id="325" depart="97.50" from="10341663#0" to="-10639460#12"/>
    <trip id="326" depart="97.80" from="135775793#2" to="10639460#12"/>
    <trip id="327" depart="98.10" from="142019563#4" to="13035024#8"/>
    <trip id="328" depart="98.40" from="10268485" to="10724842#1"/>
    <trip id="329" depart="98.70" from="-499430058#3" to="159942198#3"/>
    <trip id="330" depart="99.00" from="43930375#3" to="43927624#1"/>
    <trip id="331" depart="99.30" from="9363569#2" to="9529029#8"/>
    <trip id="332" depart="99.60" from="-135765826#0" to="9529029#14"/>
    <trip id="333" depart="99.90" from="10639453#12" to="-135765826#2"/>
    <trip id="334" depart="100.20" from="159942186" to="-34416221#5"/>
    <trip id="335" depart="100.50" from="43927166#1" to="43930378#1"/>
    <trip id="336" depart="100.80" from="-169193760#1" to="10268492"/>
    <trip id="337" depart="101.10" from="168970622#5" to="237271809#12"/>
    <trip id="338" depart="101.40" from="43930375#4" to="47323592#3"/>
    <trip id="339" depart="101.70" from="10417516#0" to="10632124#5"/>
    <trip id="340" depart="102.00" from="-13025672#5" to="12081602#1"/>
    <trip id="341" depart="102.30" from="10627815#0" to="766889624#1"/>
    <trip id="342" depart="102.60" from="10210557" to="237271809#15"/>
    <trip id="343" depart="102.90" from="-43927652#0" to="142022650#0"/>
    <trip id="344" depart="103.20" from="-135775793#1" to="169550116"/>
    <trip id="345" depart="103.50" from="-178525605#1" to="160163187#11"/>
    <trip id="347" depart="104.10" from="168970622#5" to="13035029#3"/>
    <trip id="348" depart="104.40" from="10581227#0" to="8792376#13"/>
    <trip id="349" depart="104.70" from="43930342#5" to="-47280266#1"/>
    <trip id="350" depart="105.00" from="142019563#3" to="10268492"/>
    <trip id="351" depart="105.30" from="-13025672#2" to="10558324#19"/>
    <trip id="352" depart="105.60" from="160163156#2" to="178525607#0"/>
    <trip id="353" depart="105.90" from="9368176#0" to="10581227#9"/>
    <trip id="354" depart="106.20" from="47279971#0" to="43930377#5"/>
    <trip id="355" depart="106.50" from="13035038#0" to="159942194#0"/>
    <trip id="356" depart="106.80" from="10627815#3" to="169550117"/>
    <trip id="357" depart="107.10" from="-168970622#15" to="-75713661"/>
    <trip id="358" depart="107.40" from="-47280266#1" to="237271809#4"/>
    <trip id="359" depart="107.70" from="14053018#14" to="135775793#0"/>
    <trip id="361" depart="108.30" from="10670773#7" to="-178525605#1"/>
    <trip id="362" depart="108.60" from="169550116" to="71236769"/>
    <trip id="363" depart="108.90" from="49139480" to="-169193802#2"/>
    <trip id="364" depart="109.20" from="10632124#0" to="10632113#6"/>
    <trip id="365" depart="109.50" from="257148620#1" to="-10639460#0"/>
    <trip id="366" depart="109.80" from="160163173" to="49145639#2"/>
    <trip id="367" depart="110.10" from="-10722473#2" to="-135765856"/>
    <trip id="368" depart="110.40" from="10268484" to="10692876#1"/>
    <trip id="369" depart="110.70" from="14931569#3" to="11771575#1"/>
    <trip id="370" depart="111.00" from="11771579#1" to="10670773#3"/>
    <trip id="371" depart="111.30" from="-178525612#2" to="12080429#2"/>
    <trip id="372" depart="111.60" from="135775793#5" to="165239993#1"/>
    <trip id="373" depart="111.90" from="12618613#7" to="237051455"/>
    <trip id="374" depart="112.20" from="-159942201#0" to="-237271818#0"/>
    <trip id="375" depart="112.50" from="-10639490#0" to="10345773"/>
    <trip id="376" depart="112.80" from="355480213" to="-13038774#2"/>
    <trip id="377" depart="113.10" from="47323592#13" to="-9363569#0"/>
    <trip id="378" depart="113.40" from="10691116#1" to="10692876#5"/>
    <trip id="379" depart="113.70" from="14912334#5" to="-47280266#3"/>
    <trip id="380" depart="114.00" from="135765845#0" to="237271805"/>
    <trip id="381" depart="114.30" from="10627797#2" to="136482341#1"/>
    <trip id="382" depart="114.60" from="-10639453#5" to="10692889#1"/>
    <trip id="383" depart="114.90" from="-13025672#5" to="263440658#1"/>
    <trip id="384" depart="115.20" from="160163187#0" to="10360980#10"/>
    <trip id="385" depart="115.50" from="13025704#3" to="-263440663"/>
    <trip id="386" depart="115.80" from="-43927115#4" to="-178525612#5"/>
    <trip id="387" depart="116.10" from="13025672#7" to="-43927652#0"/>
    <trip id="388" depart="116.40" from="-169004585#1" to="100820769#1"/>
    <trip id="389" depart="116.70" from="-10639460#12" to="178525597#1"/>
    <trip id="390" depart="117.00" from="499430058#4" to="47323592#22"/>
    <trip id="391" depart="117.30" from="12081602#7" to="47323592#8"/>
    <trip id="392" depart="117.60" from="169004591#19" to="10045074#1"/>
    <trip id="393" depart="117.90" from="75713661" to="-47315337#3"/>
    <trip id="394" depart="118.20" from="13035009#5" to="-178525601#0"/>
    <trip id="395" depart="118.50" from="43927166#4" to="47281513"/>
    <trip id="396" depart="118.80" from="-43927115#1" to="43927096#2"/>
    <trip id="397" depart="119.10" from="237271809#13" to="10581227#9"/>
    <trip id="398" depart="119.40" from="9529029#1" to="9529029#3"/>
    <trip id="399" depart="119.70" from="12629980#1" to="43927652#2"/>
    <trip id="400" depart="120.00" from="169004591#8" to="10341643#1"/>
    <trip id="401" depart="120.30" from="237271815#0" to="10639439#0"/>
    <trip id="402" depart="120.60" from="-43930377#2" to="-12618613#5"/>
    <trip id="403" depart="120.90" from="10596244#1" to="10045045"/>
    <trip id="404" depart="121.20" from="12620630#5" to="10686483#2"/>
    <trip id="405" depart="121.50" from="-10639453#12" to="47323592#9"/>
    <trip id="406" depart="121.80" from="43930375#6" to="-178525605#1"/>
    <trip id="407" depart="122.10" from="159942194#2" to="9363569#3"/>
    <trip id="408" depart="122.40" from="10628019#1" to="8727018#0"/>
    <trip id="409" depart="122.70" from="10628020#0" to="10724842#2"/>
    <trip id="410" depart="123.00" from="-178525601#1" to="11641394#2"/>
    <trip id="412" depart="123.60" from="8727880" to="10627815#3"/>
    <trip id="413" depart="123.90" from="135765852" to="233807203#2"/>
    <trip id="415" depart="124.50" from="74450546" to="10639486#5"/>
    <trip id="416" depart="124.80" from="10558324#8" to="727248699#1"/>
    <trip id="417" depart="125.10" from="10670773#1" to="47281513"/>
    <trip id="418" depart="125.40" from="10724842#2" to="71236738"/>
    <trip id="419" depart="125.70" from="-159942201#1" to="-135765854"/>
    <trip id="421" depart="126.30" from="10627815#3" to="10639453#11"/>
    <trip id="422" depart="126.60" from="373900046#8" to="-34410468"/>
    <trip id="423" depart="126.90" from="43930375#0" to="10628019#0"/>
    <trip id="424" depart="127.20" from="10627798#0" to="165239988#2"/>
    <trip id="425" depart="127.50" from="12620630#5" to="12078828"/>
    <trip id="426" depart="127.80" from="178525607#5" to="168970622#15"/>
    <trip id="427" depart="128.10" from="47313767" to="10639486#6"/>
    <trip id="428" depart="128.40" from="499430058#3" to="233805003"/>
    <trip id="430" depart="129.00" from="43927115#13" to="-14053057"/>
    <trip id="431" depart="129.30" from="10639439#0" to="43930338#2"/>
    <trip id="432" depart="129.60" from="12048314#1" to="43930375#7"/>
    <trip id="433" depart="129.90" from="-135775792" to="727248700"/>
    <trip id="434" depart="130.20" from="13025659#0" to="71237511"/>
    <trip id="435" depart="130.50" from="169004591#14" to="169004591#11"/>
    <trip id="436" depart="130.80" from="142019447#6" to="136482355#0"/>
    <trip id="437" depart="131.10" from="169004591#15" to="237271809#10"/>
    <trip id="438" depart="131.40" from="-733763276" to="-43927624#1"/>
    <trip id="441" depart="132.30" from="43930342#4" to="9363569#1"/>
    <trip id="442" depart="132.60" from="10692876#6" to="168970622#9"/>
    <trip id="443" depart="132.90" from="159942198#1" to="-43927115#12"/>
    <trip id="444" depart="133.20" from="-12618613#9" to="142019563#0"/>
    <trip id="445" depart="133.50" from="100820769#3" to="169550115"/>
    <trip id="446" depart="133.80" from="47313767" to="13035038#2"/>
    <trip id="447" depart="134.10" from="10724843#1" to="9529029#7"/>